<?xml version="1.0" encoding="UTF-8"?>

<!-- generated on Fri Mar 22 19:51:17 2019 by Eclipse SUMO netgenerate Version 1.1.0
<configuration xmlns:xsi="http://www.w3.org/2001/XMLSchema-instance" xsi:noNamespaceSchemaLocation="http://sumo.dlr.de/xsd/netgenerateConfiguration.xsd">

    <grid_network>
        <grid value="true"/>
        <grid.x-number value="11"/>
        <grid.y-number value="11"/>
        <grid.x-length value="98"/>
        <grid.y-length value="98"/>
    </grid_network>

    <output>
        <output-file value="mapgrid.net.xml"/>
    </output>

    <building_defaults>
        <default.speed value="5"/>
    </building_defaults>

    <tls_building>
        <tls.guess value="true"/>
    </tls_building>

</configuration>
-->

<net version="1.1" junctionCornerDetail="5" limitTurnSpeed="5.50" xmlns:xsi="http://www.w3.org/2001/XMLSchema-instance" xsi:noNamespaceSchemaLocation="http://sumo.dlr.de/xsd/net_file.xsd">

    <location netOffset="0.00,0.00" convBoundary="0.00,0.00,980.00,980.00" origBoundary="0.00,0.00,980.00,980.00" projParameter="!"/>

    <edge id=":A0_0" function="internal">
        <lane id=":A0_0_0" index="0" speed="5.00" length="7.74" shape="-1.60,3.20 -1.30,1.10 -0.40,-0.40 1.10,-1.30 3.20,-1.60"/>
    </edge>
    <edge id=":A0_1" function="internal">
        <lane id=":A0_1_0" index="0" speed="3.65" length="2.66" shape="-1.60,3.20 -0.80,2.00 0.00,1.60 0.29,1.74"/>
    </edge>
    <edge id=":A0_4" function="internal">
        <lane id=":A0_4_0" index="0" speed="3.65" length="2.01" shape="0.29,1.74 0.80,2.00 1.60,3.20"/>
    </edge>
    <edge id=":A0_2" function="internal">
        <lane id=":A0_2_0" index="0" speed="3.90" length="2.58" shape="3.20,1.60 2.50,1.70 2.00,2.00 1.70,2.50 1.60,3.20"/>
    </edge>
    <edge id=":A0_3" function="internal">
        <lane id=":A0_3_0" index="0" speed="3.65" length="2.08" shape="3.20,1.60 2.00,0.80 1.71,0.23"/>
    </edge>
    <edge id=":A0_5" function="internal">
        <lane id=":A0_5_0" index="0" speed="3.65" length="2.59" shape="1.71,0.23 1.60,0.00 2.00,-0.80 3.20,-1.60"/>
    </edge>
    <edge id=":A1_0" function="internal">
        <lane id=":A1_0_0" index="0" speed="5.00" length="14.40" shape="-1.60,105.20 -1.60,90.80"/>
    </edge>
    <edge id=":A1_1" function="internal">
        <lane id=":A1_1_0" index="0" speed="5.00" length="5.93" shape="-1.60,105.20 -1.05,101.35 0.00,99.60"/>
    </edge>
    <edge id=":A1_2" function="internal">
        <lane id=":A1_2_0" index="0" speed="3.65" length="2.34" shape="-1.60,105.20 -0.80,104.00 0.00,103.60"/>
    </edge>
    <edge id=":A1_9" function="internal">
        <lane id=":A1_9_0" index="0" speed="5.00" length="8.26" shape="0.00,99.60 0.60,98.60 3.35,96.95 7.20,96.40"/>
    </edge>
    <edge id=":A1_10" function="internal">
        <lane id=":A1_10_0" index="0" speed="3.65" length="2.34" shape="0.00,103.60 0.80,104.00 1.60,105.20"/>
    </edge>
    <edge id=":A1_3" function="internal">
        <lane id=":A1_3_0" index="0" speed="5.00" length="9.03" shape="7.20,99.60 4.75,99.95 3.00,101.00 1.95,102.75 1.60,105.20"/>
    </edge>
    <edge id=":A1_4" function="internal">
        <lane id=":A1_4_0" index="0" speed="5.00" length="14.19" shape="7.20,99.60 3.35,99.05 0.60,97.40 -1.05,94.65 -1.60,90.80"/>
    </edge>
    <edge id=":A1_5" function="internal">
        <lane id=":A1_5_0" index="0" speed="3.65" length="4.67" shape="7.20,99.60 6.00,98.80 5.60,98.00 6.00,97.20 7.20,96.40"/>
    </edge>
    <edge id=":A1_6" function="internal">
        <lane id=":A1_6_0" index="0" speed="5.00" length="9.03" shape="1.60,90.80 1.95,93.25 3.00,95.00 4.75,96.05 7.20,96.40"/>
    </edge>
    <edge id=":A1_7" function="internal">
        <lane id=":A1_7_0" index="0" speed="5.00" length="14.40" shape="1.60,90.80 1.60,105.20"/>
    </edge>
    <edge id=":A1_8" function="internal">
        <lane id=":A1_8_0" index="0" speed="3.65" length="2.34" shape="1.60,90.80 0.80,92.00 0.00,92.40"/>
    </edge>
    <edge id=":A1_11" function="internal">
        <lane id=":A1_11_0" index="0" speed="3.65" length="2.34" shape="0.00,92.40 -0.80,92.00 -1.60,90.80"/>
    </edge>
    <edge id=":A10_0" function="internal">
        <lane id=":A10_0_0" index="0" speed="5.00" length="7.74" shape="3.20,981.60 1.10,981.30 -0.40,980.40 -1.30,978.90 -1.60,976.80"/>
    </edge>
    <edge id=":A10_1" function="internal">
        <lane id=":A10_1_0" index="0" speed="3.65" length="2.66" shape="3.20,981.60 2.00,980.80 1.60,980.00 1.74,979.71"/>
    </edge>
    <edge id=":A10_4" function="internal">
        <lane id=":A10_4_0" index="0" speed="3.65" length="2.01" shape="1.74,979.71 2.00,979.20 3.20,978.40"/>
    </edge>
    <edge id=":A10_2" function="internal">
        <lane id=":A10_2_0" index="0" speed="3.90" length="2.58" shape="1.60,976.80 1.70,977.50 2.00,978.00 2.50,978.30 3.20,978.40"/>
    </edge>
    <edge id=":A10_3" function="internal">
        <lane id=":A10_3_0" index="0" speed="3.65" length="2.08" shape="1.60,976.80 0.80,978.00 0.23,978.29"/>
    </edge>
    <edge id=":A10_5" function="internal">
        <lane id=":A10_5_0" index="0" speed="3.65" length="2.59" shape="0.23,978.29 0.00,978.40 -0.80,978.00 -1.60,976.80"/>
    </edge>
    <edge id=":A2_0" function="internal">
        <lane id=":A2_0_0" index="0" speed="5.00" length="14.40" shape="-1.60,203.20 -1.60,188.80"/>
    </edge>
    <edge id=":A2_1" function="internal">
        <lane id=":A2_1_0" index="0" speed="5.00" length="5.93" shape="-1.60,203.20 -1.05,199.35 0.00,197.60"/>
    </edge>
    <edge id=":A2_2" function="internal">
        <lane id=":A2_2_0" index="0" speed="3.65" length="2.34" shape="-1.60,203.20 -0.80,202.00 0.00,201.60"/>
    </edge>
    <edge id=":A2_9" function="internal">
        <lane id=":A2_9_0" index="0" speed="5.00" length="8.26" shape="0.00,197.60 0.60,196.60 3.35,194.95 7.20,194.40"/>
    </edge>
    <edge id=":A2_10" function="internal">
        <lane id=":A2_10_0" index="0" speed="3.65" length="2.34" shape="0.00,201.60 0.80,202.00 1.60,203.20"/>
    </edge>
    <edge id=":A2_3" function="internal">
        <lane id=":A2_3_0" index="0" speed="5.00" length="9.03" shape="7.20,197.60 4.75,197.95 3.00,199.00 1.95,200.75 1.60,203.20"/>
    </edge>
    <edge id=":A2_4" function="internal">
        <lane id=":A2_4_0" index="0" speed="5.00" length="14.19" shape="7.20,197.60 3.35,197.05 0.60,195.40 -1.05,192.65 -1.60,188.80"/>
    </edge>
    <edge id=":A2_5" function="internal">
        <lane id=":A2_5_0" index="0" speed="3.65" length="4.67" shape="7.20,197.60 6.00,196.80 5.60,196.00 6.00,195.20 7.20,194.40"/>
    </edge>
    <edge id=":A2_6" function="internal">
        <lane id=":A2_6_0" index="0" speed="5.00" length="9.03" shape="1.60,188.80 1.95,191.25 3.00,193.00 4.75,194.05 7.20,194.40"/>
    </edge>
    <edge id=":A2_7" function="internal">
        <lane id=":A2_7_0" index="0" speed="5.00" length="14.40" shape="1.60,188.80 1.60,203.20"/>
    </edge>
    <edge id=":A2_8" function="internal">
        <lane id=":A2_8_0" index="0" speed="3.65" length="2.34" shape="1.60,188.80 0.80,190.00 0.00,190.40"/>
    </edge>
    <edge id=":A2_11" function="internal">
        <lane id=":A2_11_0" index="0" speed="3.65" length="2.34" shape="0.00,190.40 -0.80,190.00 -1.60,188.80"/>
    </edge>
    <edge id=":A3_0" function="internal">
        <lane id=":A3_0_0" index="0" speed="5.00" length="14.40" shape="-1.60,301.20 -1.60,286.80"/>
    </edge>
    <edge id=":A3_1" function="internal">
        <lane id=":A3_1_0" index="0" speed="5.00" length="5.93" shape="-1.60,301.20 -1.05,297.35 -0.00,295.60"/>
    </edge>
    <edge id=":A3_2" function="internal">
        <lane id=":A3_2_0" index="0" speed="3.65" length="2.34" shape="-1.60,301.20 -0.80,300.00 0.00,299.60"/>
    </edge>
    <edge id=":A3_9" function="internal">
        <lane id=":A3_9_0" index="0" speed="5.00" length="8.26" shape="-0.00,295.60 0.60,294.60 3.35,292.95 7.20,292.40"/>
    </edge>
    <edge id=":A3_10" function="internal">
        <lane id=":A3_10_0" index="0" speed="3.65" length="2.34" shape="0.00,299.60 0.80,300.00 1.60,301.20"/>
    </edge>
    <edge id=":A3_3" function="internal">
        <lane id=":A3_3_0" index="0" speed="5.00" length="9.03" shape="7.20,295.60 4.75,295.95 3.00,297.00 1.95,298.75 1.60,301.20"/>
    </edge>
    <edge id=":A3_4" function="internal">
        <lane id=":A3_4_0" index="0" speed="5.00" length="14.19" shape="7.20,295.60 3.35,295.05 0.60,293.40 -1.05,290.65 -1.60,286.80"/>
    </edge>
    <edge id=":A3_5" function="internal">
        <lane id=":A3_5_0" index="0" speed="3.65" length="4.67" shape="7.20,295.60 6.00,294.80 5.60,294.00 6.00,293.20 7.20,292.40"/>
    </edge>
    <edge id=":A3_6" function="internal">
        <lane id=":A3_6_0" index="0" speed="5.00" length="9.03" shape="1.60,286.80 1.95,289.25 3.00,291.00 4.75,292.05 7.20,292.40"/>
    </edge>
    <edge id=":A3_7" function="internal">
        <lane id=":A3_7_0" index="0" speed="5.00" length="14.40" shape="1.60,286.80 1.60,301.20"/>
    </edge>
    <edge id=":A3_8" function="internal">
        <lane id=":A3_8_0" index="0" speed="3.65" length="2.34" shape="1.60,286.80 0.80,288.00 0.00,288.40"/>
    </edge>
    <edge id=":A3_11" function="internal">
        <lane id=":A3_11_0" index="0" speed="3.65" length="2.34" shape="0.00,288.40 -0.80,288.00 -1.60,286.80"/>
    </edge>
    <edge id=":A4_0" function="internal">
        <lane id=":A4_0_0" index="0" speed="5.00" length="14.40" shape="-1.60,399.20 -1.60,384.80"/>
    </edge>
    <edge id=":A4_1" function="internal">
        <lane id=":A4_1_0" index="0" speed="5.00" length="5.93" shape="-1.60,399.20 -1.05,395.35 -0.00,393.60"/>
    </edge>
    <edge id=":A4_2" function="internal">
        <lane id=":A4_2_0" index="0" speed="3.65" length="2.34" shape="-1.60,399.20 -0.80,398.00 0.00,397.60"/>
    </edge>
    <edge id=":A4_9" function="internal">
        <lane id=":A4_9_0" index="0" speed="5.00" length="8.26" shape="-0.00,393.60 0.60,392.60 3.35,390.95 7.20,390.40"/>
    </edge>
    <edge id=":A4_10" function="internal">
        <lane id=":A4_10_0" index="0" speed="3.65" length="2.34" shape="0.00,397.60 0.80,398.00 1.60,399.20"/>
    </edge>
    <edge id=":A4_3" function="internal">
        <lane id=":A4_3_0" index="0" speed="5.00" length="9.03" shape="7.20,393.60 4.75,393.95 3.00,395.00 1.95,396.75 1.60,399.20"/>
    </edge>
    <edge id=":A4_4" function="internal">
        <lane id=":A4_4_0" index="0" speed="5.00" length="14.19" shape="7.20,393.60 3.35,393.05 0.60,391.40 -1.05,388.65 -1.60,384.80"/>
    </edge>
    <edge id=":A4_5" function="internal">
        <lane id=":A4_5_0" index="0" speed="3.65" length="4.67" shape="7.20,393.60 6.00,392.80 5.60,392.00 6.00,391.20 7.20,390.40"/>
    </edge>
    <edge id=":A4_6" function="internal">
        <lane id=":A4_6_0" index="0" speed="5.00" length="9.03" shape="1.60,384.80 1.95,387.25 3.00,389.00 4.75,390.05 7.20,390.40"/>
    </edge>
    <edge id=":A4_7" function="internal">
        <lane id=":A4_7_0" index="0" speed="5.00" length="14.40" shape="1.60,384.80 1.60,399.20"/>
    </edge>
    <edge id=":A4_8" function="internal">
        <lane id=":A4_8_0" index="0" speed="3.65" length="2.34" shape="1.60,384.80 0.80,386.00 0.00,386.40"/>
    </edge>
    <edge id=":A4_11" function="internal">
        <lane id=":A4_11_0" index="0" speed="3.65" length="2.34" shape="0.00,386.40 -0.80,386.00 -1.60,384.80"/>
    </edge>
    <edge id=":A5_0" function="internal">
        <lane id=":A5_0_0" index="0" speed="5.00" length="14.40" shape="-1.60,497.20 -1.60,482.80"/>
    </edge>
    <edge id=":A5_1" function="internal">
        <lane id=":A5_1_0" index="0" speed="5.00" length="5.93" shape="-1.60,497.20 -1.05,493.35 -0.00,491.60"/>
    </edge>
    <edge id=":A5_2" function="internal">
        <lane id=":A5_2_0" index="0" speed="3.65" length="2.34" shape="-1.60,497.20 -0.80,496.00 0.00,495.60"/>
    </edge>
    <edge id=":A5_9" function="internal">
        <lane id=":A5_9_0" index="0" speed="5.00" length="8.26" shape="-0.00,491.60 0.60,490.60 3.35,488.95 7.20,488.40"/>
    </edge>
    <edge id=":A5_10" function="internal">
        <lane id=":A5_10_0" index="0" speed="3.65" length="2.34" shape="0.00,495.60 0.80,496.00 1.60,497.20"/>
    </edge>
    <edge id=":A5_3" function="internal">
        <lane id=":A5_3_0" index="0" speed="5.00" length="9.03" shape="7.20,491.60 4.75,491.95 3.00,493.00 1.95,494.75 1.60,497.20"/>
    </edge>
    <edge id=":A5_4" function="internal">
        <lane id=":A5_4_0" index="0" speed="5.00" length="14.19" shape="7.20,491.60 3.35,491.05 0.60,489.40 -1.05,486.65 -1.60,482.80"/>
    </edge>
    <edge id=":A5_5" function="internal">
        <lane id=":A5_5_0" index="0" speed="3.65" length="4.67" shape="7.20,491.60 6.00,490.80 5.60,490.00 6.00,489.20 7.20,488.40"/>
    </edge>
    <edge id=":A5_6" function="internal">
        <lane id=":A5_6_0" index="0" speed="5.00" length="9.03" shape="1.60,482.80 1.95,485.25 3.00,487.00 4.75,488.05 7.20,488.40"/>
    </edge>
    <edge id=":A5_7" function="internal">
        <lane id=":A5_7_0" index="0" speed="5.00" length="14.40" shape="1.60,482.80 1.60,497.20"/>
    </edge>
    <edge id=":A5_8" function="internal">
        <lane id=":A5_8_0" index="0" speed="3.65" length="2.34" shape="1.60,482.80 0.80,484.00 0.00,484.40"/>
    </edge>
    <edge id=":A5_11" function="internal">
        <lane id=":A5_11_0" index="0" speed="3.65" length="2.34" shape="0.00,484.40 -0.80,484.00 -1.60,482.80"/>
    </edge>
    <edge id=":A6_0" function="internal">
        <lane id=":A6_0_0" index="0" speed="5.00" length="14.40" shape="-1.60,595.20 -1.60,580.80"/>
    </edge>
    <edge id=":A6_1" function="internal">
        <lane id=":A6_1_0" index="0" speed="5.00" length="5.93" shape="-1.60,595.20 -1.05,591.35 0.00,589.60"/>
    </edge>
    <edge id=":A6_2" function="internal">
        <lane id=":A6_2_0" index="0" speed="3.65" length="2.34" shape="-1.60,595.20 -0.80,594.00 0.00,593.60"/>
    </edge>
    <edge id=":A6_9" function="internal">
        <lane id=":A6_9_0" index="0" speed="5.00" length="8.26" shape="0.00,589.60 0.60,588.60 3.35,586.95 7.20,586.40"/>
    </edge>
    <edge id=":A6_10" function="internal">
        <lane id=":A6_10_0" index="0" speed="3.65" length="2.34" shape="0.00,593.60 0.80,594.00 1.60,595.20"/>
    </edge>
    <edge id=":A6_3" function="internal">
        <lane id=":A6_3_0" index="0" speed="5.00" length="9.03" shape="7.20,589.60 4.75,589.95 3.00,591.00 1.95,592.75 1.60,595.20"/>
    </edge>
    <edge id=":A6_4" function="internal">
        <lane id=":A6_4_0" index="0" speed="5.00" length="14.19" shape="7.20,589.60 3.35,589.05 0.60,587.40 -1.05,584.65 -1.60,580.80"/>
    </edge>
    <edge id=":A6_5" function="internal">
        <lane id=":A6_5_0" index="0" speed="3.65" length="4.67" shape="7.20,589.60 6.00,588.80 5.60,588.00 6.00,587.20 7.20,586.40"/>
    </edge>
    <edge id=":A6_6" function="internal">
        <lane id=":A6_6_0" index="0" speed="5.00" length="9.03" shape="1.60,580.80 1.95,583.25 3.00,585.00 4.75,586.05 7.20,586.40"/>
    </edge>
    <edge id=":A6_7" function="internal">
        <lane id=":A6_7_0" index="0" speed="5.00" length="14.40" shape="1.60,580.80 1.60,595.20"/>
    </edge>
    <edge id=":A6_8" function="internal">
        <lane id=":A6_8_0" index="0" speed="3.65" length="2.34" shape="1.60,580.80 0.80,582.00 0.00,582.40"/>
    </edge>
    <edge id=":A6_11" function="internal">
        <lane id=":A6_11_0" index="0" speed="3.65" length="2.34" shape="0.00,582.40 -0.80,582.00 -1.60,580.80"/>
    </edge>
    <edge id=":A7_0" function="internal">
        <lane id=":A7_0_0" index="0" speed="5.00" length="14.40" shape="-1.60,693.20 -1.60,678.80"/>
    </edge>
    <edge id=":A7_1" function="internal">
        <lane id=":A7_1_0" index="0" speed="5.00" length="5.93" shape="-1.60,693.20 -1.05,689.35 0.00,687.60"/>
    </edge>
    <edge id=":A7_2" function="internal">
        <lane id=":A7_2_0" index="0" speed="3.65" length="2.34" shape="-1.60,693.20 -0.80,692.00 0.00,691.60"/>
    </edge>
    <edge id=":A7_9" function="internal">
        <lane id=":A7_9_0" index="0" speed="5.00" length="8.26" shape="0.00,687.60 0.60,686.60 3.35,684.95 7.20,684.40"/>
    </edge>
    <edge id=":A7_10" function="internal">
        <lane id=":A7_10_0" index="0" speed="3.65" length="2.34" shape="0.00,691.60 0.80,692.00 1.60,693.20"/>
    </edge>
    <edge id=":A7_3" function="internal">
        <lane id=":A7_3_0" index="0" speed="5.00" length="9.03" shape="7.20,687.60 4.75,687.95 3.00,689.00 1.95,690.75 1.60,693.20"/>
    </edge>
    <edge id=":A7_4" function="internal">
        <lane id=":A7_4_0" index="0" speed="5.00" length="14.19" shape="7.20,687.60 3.35,687.05 0.60,685.40 -1.05,682.65 -1.60,678.80"/>
    </edge>
    <edge id=":A7_5" function="internal">
        <lane id=":A7_5_0" index="0" speed="3.65" length="4.67" shape="7.20,687.60 6.00,686.80 5.60,686.00 6.00,685.20 7.20,684.40"/>
    </edge>
    <edge id=":A7_6" function="internal">
        <lane id=":A7_6_0" index="0" speed="5.00" length="9.03" shape="1.60,678.80 1.95,681.25 3.00,683.00 4.75,684.05 7.20,684.40"/>
    </edge>
    <edge id=":A7_7" function="internal">
        <lane id=":A7_7_0" index="0" speed="5.00" length="14.40" shape="1.60,678.80 1.60,693.20"/>
    </edge>
    <edge id=":A7_8" function="internal">
        <lane id=":A7_8_0" index="0" speed="3.65" length="2.34" shape="1.60,678.80 0.80,680.00 0.00,680.40"/>
    </edge>
    <edge id=":A7_11" function="internal">
        <lane id=":A7_11_0" index="0" speed="3.65" length="2.34" shape="0.00,680.40 -0.80,680.00 -1.60,678.80"/>
    </edge>
    <edge id=":A8_0" function="internal">
        <lane id=":A8_0_0" index="0" speed="5.00" length="14.40" shape="-1.60,791.20 -1.60,776.80"/>
    </edge>
    <edge id=":A8_1" function="internal">
        <lane id=":A8_1_0" index="0" speed="5.00" length="5.93" shape="-1.60,791.20 -1.05,787.35 0.00,785.60"/>
    </edge>
    <edge id=":A8_2" function="internal">
        <lane id=":A8_2_0" index="0" speed="3.65" length="2.34" shape="-1.60,791.20 -0.80,790.00 0.00,789.60"/>
    </edge>
    <edge id=":A8_9" function="internal">
        <lane id=":A8_9_0" index="0" speed="5.00" length="8.26" shape="0.00,785.60 0.60,784.60 3.35,782.95 7.20,782.40"/>
    </edge>
    <edge id=":A8_10" function="internal">
        <lane id=":A8_10_0" index="0" speed="3.65" length="2.34" shape="0.00,789.60 0.80,790.00 1.60,791.20"/>
    </edge>
    <edge id=":A8_3" function="internal">
        <lane id=":A8_3_0" index="0" speed="5.00" length="9.03" shape="7.20,785.60 4.75,785.95 3.00,787.00 1.95,788.75 1.60,791.20"/>
    </edge>
    <edge id=":A8_4" function="internal">
        <lane id=":A8_4_0" index="0" speed="5.00" length="14.19" shape="7.20,785.60 3.35,785.05 0.60,783.40 -1.05,780.65 -1.60,776.80"/>
    </edge>
    <edge id=":A8_5" function="internal">
        <lane id=":A8_5_0" index="0" speed="3.65" length="4.67" shape="7.20,785.60 6.00,784.80 5.60,784.00 6.00,783.20 7.20,782.40"/>
    </edge>
    <edge id=":A8_6" function="internal">
        <lane id=":A8_6_0" index="0" speed="5.00" length="9.03" shape="1.60,776.80 1.95,779.25 3.00,781.00 4.75,782.05 7.20,782.40"/>
    </edge>
    <edge id=":A8_7" function="internal">
        <lane id=":A8_7_0" index="0" speed="5.00" length="14.40" shape="1.60,776.80 1.60,791.20"/>
    </edge>
    <edge id=":A8_8" function="internal">
        <lane id=":A8_8_0" index="0" speed="3.65" length="2.34" shape="1.60,776.80 0.80,778.00 0.00,778.40"/>
    </edge>
    <edge id=":A8_11" function="internal">
        <lane id=":A8_11_0" index="0" speed="3.65" length="2.34" shape="0.00,778.40 -0.80,778.00 -1.60,776.80"/>
    </edge>
    <edge id=":A9_0" function="internal">
        <lane id=":A9_0_0" index="0" speed="5.00" length="14.40" shape="-1.60,889.20 -1.60,874.80"/>
    </edge>
    <edge id=":A9_1" function="internal">
        <lane id=":A9_1_0" index="0" speed="5.00" length="5.93" shape="-1.60,889.20 -1.05,885.35 0.00,883.60"/>
    </edge>
    <edge id=":A9_2" function="internal">
        <lane id=":A9_2_0" index="0" speed="3.65" length="2.34" shape="-1.60,889.20 -0.80,888.00 0.00,887.60"/>
    </edge>
    <edge id=":A9_9" function="internal">
        <lane id=":A9_9_0" index="0" speed="5.00" length="8.26" shape="0.00,883.60 0.60,882.60 3.35,880.95 7.20,880.40"/>
    </edge>
    <edge id=":A9_10" function="internal">
        <lane id=":A9_10_0" index="0" speed="3.65" length="2.34" shape="0.00,887.60 0.80,888.00 1.60,889.20"/>
    </edge>
    <edge id=":A9_3" function="internal">
        <lane id=":A9_3_0" index="0" speed="5.00" length="9.03" shape="7.20,883.60 4.75,883.95 3.00,885.00 1.95,886.75 1.60,889.20"/>
    </edge>
    <edge id=":A9_4" function="internal">
        <lane id=":A9_4_0" index="0" speed="5.00" length="14.19" shape="7.20,883.60 3.35,883.05 0.60,881.40 -1.05,878.65 -1.60,874.80"/>
    </edge>
    <edge id=":A9_5" function="internal">
        <lane id=":A9_5_0" index="0" speed="3.65" length="4.67" shape="7.20,883.60 6.00,882.80 5.60,882.00 6.00,881.20 7.20,880.40"/>
    </edge>
    <edge id=":A9_6" function="internal">
        <lane id=":A9_6_0" index="0" speed="5.00" length="9.03" shape="1.60,874.80 1.95,877.25 3.00,879.00 4.75,880.05 7.20,880.40"/>
    </edge>
    <edge id=":A9_7" function="internal">
        <lane id=":A9_7_0" index="0" speed="5.00" length="14.40" shape="1.60,874.80 1.60,889.20"/>
    </edge>
    <edge id=":A9_8" function="internal">
        <lane id=":A9_8_0" index="0" speed="3.65" length="2.34" shape="1.60,874.80 0.80,876.00 0.00,876.40"/>
    </edge>
    <edge id=":A9_11" function="internal">
        <lane id=":A9_11_0" index="0" speed="3.65" length="2.34" shape="0.00,876.40 -0.80,876.00 -1.60,874.80"/>
    </edge>
    <edge id=":B0_0" function="internal">
        <lane id=":B0_0_0" index="0" speed="5.00" length="9.03" shape="96.40,7.20 96.05,4.75 95.00,3.00 93.25,1.95 90.80,1.60"/>
    </edge>
    <edge id=":B0_1" function="internal">
        <lane id=":B0_1_0" index="0" speed="5.00" length="14.19" shape="96.40,7.20 96.95,3.35 98.60,0.60 101.35,-1.05 105.20,-1.60"/>
    </edge>
    <edge id=":B0_2" function="internal">
        <lane id=":B0_2_0" index="0" speed="3.65" length="4.67" shape="96.40,7.20 97.20,6.00 98.00,5.60 98.80,6.00 99.60,7.20"/>
    </edge>
    <edge id=":B0_3" function="internal">
        <lane id=":B0_3_0" index="0" speed="5.00" length="9.03" shape="105.20,1.60 102.75,1.95 101.00,3.00 99.95,4.75 99.60,7.20"/>
    </edge>
    <edge id=":B0_4" function="internal">
        <lane id=":B0_4_0" index="0" speed="5.00" length="14.40" shape="105.20,1.60 90.80,1.60"/>
    </edge>
    <edge id=":B0_5" function="internal">
        <lane id=":B0_5_0" index="0" speed="3.65" length="2.34" shape="105.20,1.60 104.00,0.80 103.60,0.00"/>
    </edge>
    <edge id=":B0_9" function="internal">
        <lane id=":B0_9_0" index="0" speed="3.65" length="2.34" shape="103.60,0.00 104.00,-0.80 105.20,-1.60"/>
    </edge>
    <edge id=":B0_6" function="internal">
        <lane id=":B0_6_0" index="0" speed="5.00" length="14.40" shape="90.80,-1.60 105.20,-1.60"/>
    </edge>
    <edge id=":B0_7" function="internal">
        <lane id=":B0_7_0" index="0" speed="5.00" length="5.93" shape="90.80,-1.60 94.65,-1.05 96.40,0.00"/>
    </edge>
    <edge id=":B0_8" function="internal">
        <lane id=":B0_8_0" index="0" speed="3.65" length="2.34" shape="90.80,-1.60 92.00,-0.80 92.40,0.00"/>
    </edge>
    <edge id=":B0_10" function="internal">
        <lane id=":B0_10_0" index="0" speed="5.00" length="8.26" shape="96.40,0.00 97.40,0.60 99.05,3.35 99.60,7.20"/>
    </edge>
    <edge id=":B0_11" function="internal">
        <lane id=":B0_11_0" index="0" speed="3.65" length="2.34" shape="92.40,0.00 92.00,0.80 90.80,1.60"/>
    </edge>
    <edge id=":B1_0" function="internal">
        <lane id=":B1_0_0" index="0" speed="5.00" length="9.03" shape="96.40,105.20 96.05,102.75 95.00,101.00 93.25,99.95 90.80,99.60"/>
    </edge>
    <edge id=":B1_1" function="internal">
        <lane id=":B1_1_0" index="0" speed="5.00" length="14.40" shape="96.40,105.20 96.40,90.80"/>
    </edge>
    <edge id=":B1_2" function="internal">
        <lane id=":B1_2_0" index="0" speed="5.00" length="5.93" shape="96.40,105.20 96.95,101.35 98.00,99.60"/>
    </edge>
    <edge id=":B1_3" function="internal">
        <lane id=":B1_3_0" index="0" speed="3.65" length="2.34" shape="96.40,105.20 97.20,104.00 98.00,103.60"/>
    </edge>
    <edge id=":B1_16" function="internal">
        <lane id=":B1_16_0" index="0" speed="5.00" length="8.26" shape="98.00,99.60 98.60,98.60 101.35,96.95 105.20,96.40"/>
    </edge>
    <edge id=":B1_17" function="internal">
        <lane id=":B1_17_0" index="0" speed="3.65" length="2.34" shape="98.00,103.60 98.80,104.00 99.60,105.20"/>
    </edge>
    <edge id=":B1_4" function="internal">
        <lane id=":B1_4_0" index="0" speed="5.00" length="9.03" shape="105.20,99.60 102.75,99.95 101.00,101.00 99.95,102.75 99.60,105.20"/>
    </edge>
    <edge id=":B1_5" function="internal">
        <lane id=":B1_5_0" index="0" speed="5.00" length="14.40" shape="105.20,99.60 90.80,99.60"/>
    </edge>
    <edge id=":B1_6" function="internal">
        <lane id=":B1_6_0" index="0" speed="5.00" length="14.19" shape="105.20,99.60 101.35,99.05 98.60,97.40 96.95,94.65 96.40,90.80"/>
    </edge>
    <edge id=":B1_7" function="internal">
        <lane id=":B1_7_0" index="0" speed="3.65" length="4.67" shape="105.20,99.60 104.00,98.80 103.60,98.00 104.00,97.20 105.20,96.40"/>
    </edge>
    <edge id=":B1_8" function="internal">
        <lane id=":B1_8_0" index="0" speed="5.00" length="9.03" shape="99.60,90.80 99.95,93.25 101.00,95.00 102.75,96.05 105.20,96.40"/>
    </edge>
    <edge id=":B1_9" function="internal">
        <lane id=":B1_9_0" index="0" speed="5.00" length="14.40" shape="99.60,90.80 99.60,105.20"/>
    </edge>
    <edge id=":B1_10" function="internal">
        <lane id=":B1_10_0" index="0" speed="5.00" length="5.93" shape="99.60,90.80 99.05,94.65 98.00,96.40"/>
    </edge>
    <edge id=":B1_11" function="internal">
        <lane id=":B1_11_0" index="0" speed="3.65" length="2.34" shape="99.60,90.80 98.80,92.00 98.00,92.40"/>
    </edge>
    <edge id=":B1_18" function="internal">
        <lane id=":B1_18_0" index="0" speed="5.00" length="8.26" shape="98.00,96.40 97.40,97.40 94.65,99.05 90.80,99.60"/>
    </edge>
    <edge id=":B1_19" function="internal">
        <lane id=":B1_19_0" index="0" speed="3.65" length="2.34" shape="98.00,92.40 97.20,92.00 96.40,90.80"/>
    </edge>
    <edge id=":B1_12" function="internal">
        <lane id=":B1_12_0" index="0" speed="5.00" length="9.03" shape="90.80,96.40 93.25,96.05 95.00,95.00 96.05,93.25 96.40,90.80"/>
    </edge>
    <edge id=":B1_13" function="internal">
        <lane id=":B1_13_0" index="0" speed="5.00" length="14.40" shape="90.80,96.40 105.20,96.40"/>
    </edge>
    <edge id=":B1_14" function="internal">
        <lane id=":B1_14_0" index="0" speed="5.00" length="14.19" shape="90.80,96.40 94.65,96.95 97.40,98.60 99.05,101.35 99.60,105.20"/>
    </edge>
    <edge id=":B1_15" function="internal">
        <lane id=":B1_15_0" index="0" speed="3.65" length="4.67" shape="90.80,96.40 92.00,97.20 92.40,98.00 92.00,98.80 90.80,99.60"/>
    </edge>
    <edge id=":B10_0" function="internal">
        <lane id=":B10_0_0" index="0" speed="5.00" length="14.40" shape="105.20,981.60 90.80,981.60"/>
    </edge>
    <edge id=":B10_1" function="internal">
        <lane id=":B10_1_0" index="0" speed="5.00" length="5.93" shape="105.20,981.60 101.35,981.05 99.60,980.00"/>
    </edge>
    <edge id=":B10_2" function="internal">
        <lane id=":B10_2_0" index="0" speed="3.65" length="2.34" shape="105.20,981.60 104.00,980.80 103.60,980.00"/>
    </edge>
    <edge id=":B10_9" function="internal">
        <lane id=":B10_9_0" index="0" speed="5.00" length="8.26" shape="99.60,980.00 98.60,979.40 96.95,976.65 96.40,972.80"/>
    </edge>
    <edge id=":B10_10" function="internal">
        <lane id=":B10_10_0" index="0" speed="3.65" length="2.34" shape="103.60,980.00 104.00,979.20 105.20,978.40"/>
    </edge>
    <edge id=":B10_3" function="internal">
        <lane id=":B10_3_0" index="0" speed="5.00" length="9.03" shape="99.60,972.80 99.95,975.25 101.00,977.00 102.75,978.05 105.20,978.40"/>
    </edge>
    <edge id=":B10_4" function="internal">
        <lane id=":B10_4_0" index="0" speed="5.00" length="14.19" shape="99.60,972.80 99.05,976.65 97.40,979.40 94.65,981.05 90.80,981.60"/>
    </edge>
    <edge id=":B10_5" function="internal">
        <lane id=":B10_5_0" index="0" speed="3.65" length="4.67" shape="99.60,972.80 98.80,974.00 98.00,974.40 97.20,974.00 96.40,972.80"/>
    </edge>
    <edge id=":B10_6" function="internal">
        <lane id=":B10_6_0" index="0" speed="5.00" length="9.03" shape="90.80,978.40 93.25,978.05 95.00,977.00 96.05,975.25 96.40,972.80"/>
    </edge>
    <edge id=":B10_7" function="internal">
        <lane id=":B10_7_0" index="0" speed="5.00" length="14.40" shape="90.80,978.40 105.20,978.40"/>
    </edge>
    <edge id=":B10_8" function="internal">
        <lane id=":B10_8_0" index="0" speed="3.65" length="2.34" shape="90.80,978.40 92.00,979.20 92.40,980.00"/>
    </edge>
    <edge id=":B10_11" function="internal">
        <lane id=":B10_11_0" index="0" speed="3.65" length="2.34" shape="92.40,980.00 92.00,980.80 90.80,981.60"/>
    </edge>
    <edge id=":B2_0" function="internal">
        <lane id=":B2_0_0" index="0" speed="5.00" length="9.03" shape="96.40,203.20 96.05,200.75 95.00,199.00 93.25,197.95 90.80,197.60"/>
    </edge>
    <edge id=":B2_1" function="internal">
        <lane id=":B2_1_0" index="0" speed="5.00" length="14.40" shape="96.40,203.20 96.40,188.80"/>
    </edge>
    <edge id=":B2_2" function="internal">
        <lane id=":B2_2_0" index="0" speed="5.00" length="5.93" shape="96.40,203.20 96.95,199.35 98.00,197.60"/>
    </edge>